** Generated for: hspiceD
** Generated on: Mar  1 09:13:36 2021
** Design library name: nuplus_check
** Design cell name: np8-chip
** Design view name: schematic


.TEMP 25.0
.OPTION
+    ARTIST=2
+    INGOLD=2
+    PARHIER=LOCAL
+    PSF=2

** Library name: nuplus_check
** Cell name: nor
** View name: schematic
.subckt nor a agnd b d1p5v dgnd out
xmn1 out a dgnd agnd ne w=290e-9 l=180e-9 as=139.2e-15 ad=139.2e-15 ps=1.54e-6 pd=1.54e-6 nrs=931.034e-3 nrd=931.034e-3 m=1 par1=1
xmn2 out b dgnd agnd ne w=290e-9 l=180e-9 as=139.2e-15 ad=139.2e-15 ps=1.54e-6 pd=1.54e-6 nrs=931.034e-3 nrd=931.034e-3 m=1 par1=1
xm0 out b net23 d1p5v pe w=840e-9 l=180e-9 as=403.2e-15 ad=403.2e-15 ps=2.64e-6 pd=2.64e-6 nrs=321.429e-3 nrd=321.429e-3 m=1 par1=1
xmp2 net23 a d1p5v d1p5v pe w=840e-9 l=180e-9 as=403.2e-15 ad=403.2e-15 ps=2.64e-6 pd=2.64e-6 nrs=321.429e-3 nrd=321.429e-3 m=1 par1=1
.ends nor
** End of subcircuit definition.

** Library name: nuplus_check
** Cell name: inv
** View name: schematic
.subckt inv agnd d1p5v dgnd in out
xm0 out in dgnd agnd ne w=290e-9 l=180e-9 as=139.2e-15 ad=139.2e-15 ps=1.54e-6 pd=1.54e-6 nrs=931.034e-3 nrd=931.034e-3 m=1 par1=1
xm1 out in d1p5v d1p5v pe w=1e-6 l=180e-9 as=480e-15 ad=480e-15 ps=2.96e-6 pd=2.96e-6 nrs=270e-3 nrd=270e-3 m=1 par1=1
.ends inv
** End of subcircuit definition.

** Library name: nuplus_check
** Cell name: lvto5Vpn
** View name: schematic
.subckt lvto5Vpn agnd d1p5v d5v dgnd in out _net0
xm0 _net0 net57 dgnd agnd ne5 w=320e-9 l=500e-9 as=153.6e-15 ad=153.6e-15 ps=1.6e-6 pd=1.6e-6 nrs=1.6875 nrd=1.6875 m=1 par1=1
xm6 net65 in dgnd agnd ne5 w=840e-9 l=500e-9 as=403.2e-15 ad=403.2e-15 ps=2.64e-6 pd=2.64e-6 nrs=642.857e-3 nrd=642.857e-3 m=1 par1=1
xm8 out net65 dgnd agnd ne5 w=320e-9 l=500e-9 as=153.6e-15 ad=153.6e-15 ps=1.6e-6 pd=1.6e-6 nrs=1.6875 nrd=1.6875 m=1 par1=1
xm4 net57 net56 dgnd agnd ne5 w=840e-9 l=500e-9 as=403.2e-15 ad=403.2e-15 ps=2.64e-6 pd=2.64e-6 nrs=321.429e-3 nrd=321.429e-3 m=1 par1=1
xm2 net56 in dgnd agnd ne w=420e-9 l=180e-9 as=201.6e-15 ad=201.6e-15 ps=1.8e-6 pd=1.8e-6 nrs=642.857e-3 nrd=642.857e-3 m=1 par1=1
xm1 net56 in d1p5v d1p5v pe w=1e-6 l=180e-9 as=480e-15 ad=480e-15 ps=2.96e-6 pd=2.96e-6 nrs=270e-3 nrd=270e-3 m=1 par1=1
xm9 _net0 net57 d5v d5v pe5 w=510e-9 l=500e-9 as=244.8e-15 ad=244.8e-15 ps=1.98e-6 pd=1.98e-6 nrs=1.05882 nrd=1.05882 m=1 par1=1
xm7 out net65 d5v d5v pe5 w=510e-9 l=500e-9 as=244.8e-15 ad=244.8e-15 ps=1.98e-6 pd=1.98e-6 nrs=1.05882 nrd=1.05882 m=1 par1=1
xm3 net57 net65 d5v d5v pe5 w=220e-9 l=500e-9 as=105.6e-15 ad=105.6e-15 ps=1.4e-6 pd=1.4e-6 nrs=2.45455 nrd=2.45455 m=1 par1=1
xm5 net65 net57 d5v d5v pe5 w=220e-9 l=500e-9 as=105.6e-15 ad=105.6e-15 ps=1.4e-6 pd=1.4e-6 nrs=2.45455 nrd=2.45455 m=1 par1=1
.ends lvto5Vpn
** End of subcircuit definition.

** Library name: nuplus_check
** Cell name: dffc
** View name: schematic
.subckt dffc d q _net0 agnd clk _net1 d1p5v dgnd
xm6 _net0 sqi dgnd agnd ne w=580e-9 l=180e-9 as=278.4e-15 ad=278.4e-15 ps=2.12e-6 pd=2.12e-6 nrs=465.517e-3 nrd=465.517e-3 m=1 par1=1
xm2 ci cib dgnd agnd ne w=290e-9 l=180e-9 as=139.2e-15 ad=139.2e-15 ps=1.54e-6 pd=1.54e-6 nrs=931.034e-3 nrd=931.034e-3 m=1 par1=1
xm0 cib clk dgnd agnd ne w=290e-9 l=180e-9 as=139.2e-15 ad=139.2e-15 ps=1.54e-6 pd=1.54e-6 nrs=931.034e-3 nrd=931.034e-3 m=1 par1=1
xm46 sqib ci net82 agnd ne w=290e-9 l=180e-9 as=139.2e-15 ad=139.2e-15 ps=1.54e-6 pd=1.54e-6 nrs=931.034e-3 nrd=931.034e-3 m=1 par1=1
xm51 sqib cib net79 agnd ne w=260e-9 l=180e-9 as=124.8e-15 ad=124.8e-15 ps=1.48e-6 pd=1.48e-6 nrs=1.03846 nrd=1.03846 m=1 par1=1
xm18 mqib cib net86 agnd ne w=290e-9 l=180e-9 as=139.2e-15 ad=139.2e-15 ps=1.54e-6 pd=1.54e-6 nrs=931.034e-3 nrd=931.034e-3 m=1 par1=1
xm19 mqib ci net83 agnd ne w=290e-9 l=180e-9 as=139.2e-15 ad=139.2e-15 ps=1.54e-6 pd=1.54e-6 nrs=931.034e-3 nrd=931.034e-3 m=1 par1=1
xm50 net79 sqi net75 agnd ne w=260e-9 l=180e-9 as=124.8e-15 ad=124.8e-15 ps=1.48e-6 pd=1.48e-6 nrs=1.03846 nrd=1.03846 m=1 par1=1
xm17 mqi mqib dgnd agnd ne w=290e-9 l=180e-9 as=139.2e-15 ad=139.2e-15 ps=1.54e-6 pd=1.54e-6 nrs=931.034e-3 nrd=931.034e-3 m=1 par1=1
xm49 sqi sqib dgnd agnd ne w=290e-9 l=180e-9 as=139.2e-15 ad=139.2e-15 ps=1.54e-6 pd=1.54e-6 nrs=931.034e-3 nrd=931.034e-3 m=1 par1=1
xm47 net82 mqi net75 agnd ne w=290e-9 l=180e-9 as=139.2e-15 ad=139.2e-15 ps=1.54e-6 pd=1.54e-6 nrs=931.034e-3 nrd=931.034e-3 m=1 par1=1
xm15 net86 d net70 agnd ne w=290e-9 l=180e-9 as=139.2e-15 ad=139.2e-15 ps=1.54e-6 pd=1.54e-6 nrs=931.034e-3 nrd=931.034e-3 m=1 par1=1
xm61 net83 mqi net70 agnd ne w=290e-9 l=180e-9 as=139.2e-15 ad=139.2e-15 ps=1.54e-6 pd=1.54e-6 nrs=931.034e-3 nrd=931.034e-3 m=1 par1=1
xm48 net75 _net1 dgnd agnd ne w=420e-9 l=180e-9 as=201.6e-15 ad=201.6e-15 ps=1.8e-6 pd=1.8e-6 nrs=642.857e-3 nrd=642.857e-3 m=1 par1=1
xm44 net70 _net1 dgnd agnd ne w=420e-9 l=180e-9 as=201.6e-15 ad=201.6e-15 ps=1.8e-6 pd=1.8e-6 nrs=642.857e-3 nrd=642.857e-3 m=1 par1=1
xm4 q sqib dgnd agnd ne w=580e-9 l=180e-9 as=278.4e-15 ad=278.4e-15 ps=2.12e-6 pd=2.12e-6 nrs=465.517e-3 nrd=465.517e-3 m=1 par1=1
xm7 _net0 sqi d1p5v d1p5v pe w=840e-9 l=180e-9 as=403.2e-15 ad=403.2e-15 ps=2.64e-6 pd=2.64e-6 nrs=321.429e-3 nrd=321.429e-3 m=1 par1=1
xm3 ci cib d1p5v d1p5v pe w=420e-9 l=180e-9 as=201.6e-15 ad=201.6e-15 ps=1.8e-6 pd=1.8e-6 nrs=642.857e-3 nrd=642.857e-3 m=1 par1=1
xm1 cib clk d1p5v d1p5v pe w=420e-9 l=180e-9 as=201.6e-15 ad=201.6e-15 ps=1.8e-6 pd=1.8e-6 nrs=642.857e-3 nrd=642.857e-3 m=1 par1=1
xm25 mqib _net1 d1p5v d1p5v pe w=380e-9 l=180e-9 as=182.4e-15 ad=182.4e-15 ps=1.72e-6 pd=1.72e-6 nrs=710.526e-3 nrd=710.526e-3 m=1 par1=1
xm58 sqib _net1 d1p5v d1p5v pe w=420e-9 l=180e-9 as=201.6e-15 ad=201.6e-15 ps=1.8e-6 pd=1.8e-6 nrs=642.857e-3 nrd=642.857e-3 m=1 par1=1
xm56 mqi mqib d1p5v d1p5v pe w=420e-9 l=180e-9 as=201.6e-15 ad=201.6e-15 ps=1.8e-6 pd=1.8e-6 nrs=642.857e-3 nrd=642.857e-3 m=1 par1=1
xm30 net81 mqi d1p5v d1p5v pe w=420e-9 l=180e-9 as=201.6e-15 ad=201.6e-15 ps=1.8e-6 pd=1.8e-6 nrs=642.857e-3 nrd=642.857e-3 m=1 par1=1
xm59 sqi sqib d1p5v d1p5v pe w=420e-9 l=180e-9 as=201.6e-15 ad=201.6e-15 ps=1.8e-6 pd=1.8e-6 nrs=642.857e-3 nrd=642.857e-3 m=1 par1=1
xm36 net80 sqi d1p5v d1p5v pe w=290e-9 l=180e-9 as=139.2e-15 ad=139.2e-15 ps=1.54e-6 pd=1.54e-6 nrs=931.034e-3 nrd=931.034e-3 m=1 par1=1
xm28 net84 mqi d1p5v d1p5v pe w=290e-9 l=180e-9 as=139.2e-15 ad=139.2e-15 ps=1.54e-6 pd=1.54e-6 nrs=931.034e-3 nrd=931.034e-3 m=1 par1=1
xm23 net85 d d1p5v d1p5v pe w=420e-9 l=180e-9 as=201.6e-15 ad=201.6e-15 ps=1.8e-6 pd=1.8e-6 nrs=642.857e-3 nrd=642.857e-3 m=1 par1=1
xm35 sqib ci net80 d1p5v pe w=290e-9 l=180e-9 as=139.2e-15 ad=139.2e-15 ps=1.54e-6 pd=1.54e-6 nrs=931.034e-3 nrd=931.034e-3 m=1 par1=1
xm34 mqib cib net84 d1p5v pe w=290e-9 l=180e-9 as=139.2e-15 ad=139.2e-15 ps=1.54e-6 pd=1.54e-6 nrs=931.034e-3 nrd=931.034e-3 m=1 par1=1
xm33 sqib cib net81 d1p5v pe w=420e-9 l=180e-9 as=201.6e-15 ad=201.6e-15 ps=1.8e-6 pd=1.8e-6 nrs=642.857e-3 nrd=642.857e-3 m=1 par1=1
xm24 mqib ci net85 d1p5v pe w=420e-9 l=180e-9 as=201.6e-15 ad=201.6e-15 ps=1.8e-6 pd=1.8e-6 nrs=642.857e-3 nrd=642.857e-3 m=1 par1=1
xm5 q sqib d1p5v d1p5v pe w=840e-9 l=180e-9 as=403.2e-15 ad=403.2e-15 ps=2.64e-6 pd=2.64e-6 nrs=321.429e-3 nrd=321.429e-3 m=1 par1=1
.ends dffc
** End of subcircuit definition.

** Library name: nuplus_check
** Cell name: mux2n
** View name: schematic
.subckt mux2n a agnd b d1p5v dgnd out sel
xmn2 out _net0 net27 agnd ne w=580e-9 l=180e-9 as=278.4e-15 ad=278.4e-15 ps=2.12e-6 pd=2.12e-6 nrs=465.517e-3 nrd=465.517e-3 m=1 par1=1
xm1 out sel net25 agnd ne w=580e-9 l=180e-9 as=278.4e-15 ad=278.4e-15 ps=2.12e-6 pd=2.12e-6 nrs=465.517e-3 nrd=465.517e-3 m=1 par1=1
xmn1 net27 a dgnd agnd ne w=580e-9 l=180e-9 as=278.4e-15 ad=278.4e-15 ps=2.12e-6 pd=2.12e-6 nrs=465.517e-3 nrd=465.517e-3 m=1 par1=1
xm0 net25 b dgnd agnd ne w=580e-9 l=180e-9 as=278.4e-15 ad=278.4e-15 ps=2.12e-6 pd=2.12e-6 nrs=465.517e-3 nrd=465.517e-3 m=1 par1=1
xmp1 net26 a d1p5v d1p5v pe w=2e-6 l=180e-9 as=960e-15 ad=960e-15 ps=4.96e-6 pd=4.96e-6 nrs=135e-3 nrd=135e-3 m=1 par1=1
xmp2 out sel net26 d1p5v pe w=2e-6 l=180e-9 as=960e-15 ad=960e-15 ps=4.96e-6 pd=4.96e-6 nrs=135e-3 nrd=135e-3 m=1 par1=1
xm3 net24 b d1p5v d1p5v pe w=2e-6 l=180e-9 as=960e-15 ad=960e-15 ps=4.96e-6 pd=4.96e-6 nrs=135e-3 nrd=135e-3 m=1 par1=1
xm2 out _net0 net24 d1p5v pe w=2e-6 l=180e-9 as=960e-15 ad=960e-15 ps=4.96e-6 pd=4.96e-6 nrs=135e-3 nrd=135e-3 m=1 par1=1
xi0 agnd d1p5v dgnd sel _net0 inv
.ends mux2n
** End of subcircuit definition.

** Library name: nuplus_check
** Cell name: invb
** View name: schematic
.subckt invb agnd d1p5v dgnd in out
xm0 out in dgnd agnd ne w=1.16e-6 l=180e-9 as=556.8e-15 ad=556.8e-15 ps=3.28e-6 pd=3.28e-6 nrs=232.759e-3 nrd=232.759e-3 m=1 par1=1
xm1 out in d1p5v d1p5v pe w=4e-6 l=180e-9 as=1.92e-12 ad=1.92e-12 ps=8.96e-6 pd=8.96e-6 nrs=67.5e-3 nrd=67.5e-3 m=1 par1=1
.ends invb
** End of subcircuit definition.

** Library name: nuplus_check
** Cell name: token-reg
** View name: schematic
.subckt _sub7 agnd _net1 _net2 _net4 _net7 d1p5v dgnd _net6 _net5 _net0 _net3
xi26 _net0 agnd _net1 d1p5v dgnd net20 nor
xi19 agnd d1p5v dgnd _net2 net16 inv
xi18 agnd d1p5v dgnd net17 _net3 invb
xi20 agnd d1p5v dgnd net16 _net4 invb
xi22 _net5 agnd _net0 d1p5v dgnd net17 _net1 mux2n
xi25 net20 _net6 _net5 agnd net16 _net7 d1p5v dgnd dffc
.ends _sub7
** End of subcircuit definition.

** Library name: nuplus_check
** Cell name: lvto5Vn
** View name: schematic
.subckt lvto5Vn agnd d1p5v d5v dgnd in out
xm6 net59 in dgnd agnd ne5 w=840e-9 l=500e-9 as=403.2e-15 ad=403.2e-15 ps=2.64e-6 pd=2.64e-6 nrs=642.857e-3 nrd=642.857e-3 m=1 par1=1
xm8 out net53 dgnd agnd ne5 w=320e-9 l=500e-9 as=153.6e-15 ad=153.6e-15 ps=1.6e-6 pd=1.6e-6 nrs=1.6875 nrd=1.6875 m=1 par1=1
xm4 net53 net52 dgnd agnd ne5 w=840e-9 l=500e-9 as=403.2e-15 ad=403.2e-15 ps=2.64e-6 pd=2.64e-6 nrs=321.429e-3 nrd=321.429e-3 m=1 par1=1
xm2 net52 in dgnd agnd ne w=420e-9 l=180e-9 as=201.6e-15 ad=201.6e-15 ps=1.8e-6 pd=1.8e-6 nrs=642.857e-3 nrd=642.857e-3 m=1 par1=1
xm1 net52 in d1p5v d1p5v pe w=1e-6 l=180e-9 as=480e-15 ad=480e-15 ps=2.96e-6 pd=2.96e-6 nrs=270e-3 nrd=270e-3 m=1 par1=1
xm7 out net53 d5v d5v pe5 w=510e-9 l=500e-9 as=244.8e-15 ad=244.8e-15 ps=1.98e-6 pd=1.98e-6 nrs=1.05882 nrd=1.05882 m=1 par1=1
xm3 net53 net59 d5v d5v pe5 w=220e-9 l=500e-9 as=105.6e-15 ad=105.6e-15 ps=1.4e-6 pd=1.4e-6 nrs=2.45455 nrd=2.45455 m=1 par1=1
xm5 net59 net53 d5v d5v pe5 w=220e-9 l=500e-9 as=105.6e-15 ad=105.6e-15 ps=1.4e-6 pd=1.4e-6 nrs=2.45455 nrd=2.45455 m=1 par1=1
.ends lvto5Vn
** End of subcircuit definition.

** Library name: nuplus_check
** Cell name: dff
** View name: schematic
.subckt dff d q _net0 agnd clk d1p5v dgnd
xm2 ci cib dgnd agnd ne w=290e-9 l=180e-9 as=139.2e-15 ad=139.2e-15 ps=1.54e-6 pd=1.54e-6 nrs=931.034e-3 nrd=931.034e-3 m=1 par1=1
xm51 sqib cib net53 agnd ne w=290e-9 l=180e-9 as=139.2e-15 ad=139.2e-15 ps=1.54e-6 pd=1.54e-6 nrs=931.034e-3 nrd=931.034e-3 m=1 par1=1
xm46 sqib ci net56 agnd ne w=290e-9 l=180e-9 as=139.2e-15 ad=139.2e-15 ps=1.54e-6 pd=1.54e-6 nrs=931.034e-3 nrd=931.034e-3 m=1 par1=1
xm18 mqib cib net60 agnd ne w=290e-9 l=180e-9 as=139.2e-15 ad=139.2e-15 ps=1.54e-6 pd=1.54e-6 nrs=931.034e-3 nrd=931.034e-3 m=1 par1=1
xm19 mqib ci net57 agnd ne w=290e-9 l=180e-9 as=139.2e-15 ad=139.2e-15 ps=1.54e-6 pd=1.54e-6 nrs=931.034e-3 nrd=931.034e-3 m=1 par1=1
xm50 net53 net40 dgnd agnd ne w=290e-9 l=180e-9 as=139.2e-15 ad=139.2e-15 ps=1.54e-6 pd=1.54e-6 nrs=931.034e-3 nrd=931.034e-3 m=1 par1=1
xm47 net56 mqi dgnd agnd ne w=290e-9 l=180e-9 as=139.2e-15 ad=139.2e-15 ps=1.54e-6 pd=1.54e-6 nrs=931.034e-3 nrd=931.034e-3 m=1 par1=1
xm49 net40 sqib dgnd agnd ne w=290e-9 l=180e-9 as=139.2e-15 ad=139.2e-15 ps=1.54e-6 pd=1.54e-6 nrs=931.034e-3 nrd=931.034e-3 m=1 par1=1
xm17 mqi mqib dgnd agnd ne w=290e-9 l=180e-9 as=139.2e-15 ad=139.2e-15 ps=1.54e-6 pd=1.54e-6 nrs=931.034e-3 nrd=931.034e-3 m=1 par1=1
xm61 net57 mqi dgnd agnd ne w=290e-9 l=180e-9 as=139.2e-15 ad=139.2e-15 ps=1.54e-6 pd=1.54e-6 nrs=931.034e-3 nrd=931.034e-3 m=1 par1=1
xm15 net60 d dgnd agnd ne w=290e-9 l=180e-9 as=139.2e-15 ad=139.2e-15 ps=1.54e-6 pd=1.54e-6 nrs=931.034e-3 nrd=931.034e-3 m=1 par1=1
xm7 _net0 net40 dgnd agnd ne w=580e-9 l=180e-9 as=278.4e-15 ad=278.4e-15 ps=2.12e-6 pd=2.12e-6 nrs=465.517e-3 nrd=465.517e-3 m=1 par1=1
xm4 q sqib dgnd agnd ne w=580e-9 l=180e-9 as=278.4e-15 ad=278.4e-15 ps=2.12e-6 pd=2.12e-6 nrs=465.517e-3 nrd=465.517e-3 m=1 par1=1
xm0 cib clk dgnd agnd ne w=290e-9 l=180e-9 as=139.2e-15 ad=139.2e-15 ps=1.54e-6 pd=1.54e-6 nrs=931.034e-3 nrd=931.034e-3 m=1 par1=1
xm5 q sqib d1p5v d1p5v pe w=840e-9 l=180e-9 as=403.2e-15 ad=403.2e-15 ps=2.64e-6 pd=2.64e-6 nrs=321.429e-3 nrd=321.429e-3 m=1 par1=1
xm3 ci cib d1p5v d1p5v pe w=420e-9 l=180e-9 as=201.6e-15 ad=201.6e-15 ps=1.8e-6 pd=1.8e-6 nrs=642.857e-3 nrd=642.857e-3 m=1 par1=1
xm36 net54 net40 d1p5v d1p5v pe w=290e-9 l=180e-9 as=139.2e-15 ad=139.2e-15 ps=1.54e-6 pd=1.54e-6 nrs=931.034e-3 nrd=931.034e-3 m=1 par1=1
xm30 net55 mqi d1p5v d1p5v pe w=420e-9 l=180e-9 as=201.6e-15 ad=201.6e-15 ps=1.8e-6 pd=1.8e-6 nrs=642.857e-3 nrd=642.857e-3 m=1 par1=1
xm59 net40 sqib d1p5v d1p5v pe w=420e-9 l=180e-9 as=201.6e-15 ad=201.6e-15 ps=1.8e-6 pd=1.8e-6 nrs=642.857e-3 nrd=642.857e-3 m=1 par1=1
xm28 net58 mqi d1p5v d1p5v pe w=290e-9 l=180e-9 as=139.2e-15 ad=139.2e-15 ps=1.54e-6 pd=1.54e-6 nrs=931.034e-3 nrd=931.034e-3 m=1 par1=1
xm56 mqi mqib d1p5v d1p5v pe w=420e-9 l=180e-9 as=201.6e-15 ad=201.6e-15 ps=1.8e-6 pd=1.8e-6 nrs=642.857e-3 nrd=642.857e-3 m=1 par1=1
xm23 net59 d d1p5v d1p5v pe w=420e-9 l=180e-9 as=201.6e-15 ad=201.6e-15 ps=1.8e-6 pd=1.8e-6 nrs=642.857e-3 nrd=642.857e-3 m=1 par1=1
xm35 sqib ci net54 d1p5v pe w=290e-9 l=180e-9 as=139.2e-15 ad=139.2e-15 ps=1.54e-6 pd=1.54e-6 nrs=931.034e-3 nrd=931.034e-3 m=1 par1=1
xm34 mqib cib net58 d1p5v pe w=290e-9 l=180e-9 as=139.2e-15 ad=139.2e-15 ps=1.54e-6 pd=1.54e-6 nrs=931.034e-3 nrd=931.034e-3 m=1 par1=1
xm33 sqib cib net55 d1p5v pe w=420e-9 l=180e-9 as=201.6e-15 ad=201.6e-15 ps=1.8e-6 pd=1.8e-6 nrs=642.857e-3 nrd=642.857e-3 m=1 par1=1
xm24 mqib ci net59 d1p5v pe w=420e-9 l=180e-9 as=201.6e-15 ad=201.6e-15 ps=1.8e-6 pd=1.8e-6 nrs=642.857e-3 nrd=642.857e-3 m=1 par1=1
xm6 _net0 net40 d1p5v d1p5v pe w=840e-9 l=180e-9 as=403.2e-15 ad=403.2e-15 ps=2.64e-6 pd=2.64e-6 nrs=321.429e-3 nrd=321.429e-3 m=1 par1=1
xm1 cib clk d1p5v d1p5v pe w=420e-9 l=180e-9 as=201.6e-15 ad=201.6e-15 ps=1.8e-6 pd=1.8e-6 nrs=642.857e-3 nrd=642.857e-3 m=1 par1=1
.ends dff
** End of subcircuit definition.

** Library name: nuplus_check
** Cell name: nand3
** View name: schematic
.subckt nand3 a agnd b c d1p5v dgnd out
xm0 net21 b net22 agnd ne w=870e-9 l=180e-9 as=417.6e-15 ad=417.6e-15 ps=2.7e-6 pd=2.7e-6 nrs=310.345e-3 nrd=310.345e-3 m=1 par1=1
xmn1 out a net21 agnd ne w=870e-9 l=180e-9 as=417.6e-15 ad=417.6e-15 ps=2.7e-6 pd=2.7e-6 nrs=310.345e-3 nrd=310.345e-3 m=1 par1=1
xmn2 net22 c dgnd agnd ne w=870e-9 l=180e-9 as=417.6e-15 ad=417.6e-15 ps=2.7e-6 pd=2.7e-6 nrs=310.345e-3 nrd=310.345e-3 m=1 par1=1
xm1 out a d1p5v d1p5v pe w=420e-9 l=180e-9 as=201.6e-15 ad=201.6e-15 ps=1.8e-6 pd=1.8e-6 nrs=642.857e-3 nrd=642.857e-3 m=1 par1=1
xmp1 out b d1p5v d1p5v pe w=420e-9 l=180e-9 as=201.6e-15 ad=201.6e-15 ps=1.8e-6 pd=1.8e-6 nrs=642.857e-3 nrd=642.857e-3 m=1 par1=1
xmp2 out c d1p5v d1p5v pe w=420e-9 l=180e-9 as=201.6e-15 ad=201.6e-15 ps=1.8e-6 pd=1.8e-6 nrs=642.857e-3 nrd=642.857e-3 m=1 par1=1
.ends nand3
** End of subcircuit definition.

** Library name: nuplus_check
** Cell name: nand
** View name: schematic
.subckt nand a agnd b d1p5v dgnd out
xmn1 out a net15 agnd ne w=580e-9 l=180e-9 as=278.4e-15 ad=278.4e-15 ps=2.12e-6 pd=2.12e-6 nrs=465.517e-3 nrd=465.517e-3 m=1 par1=1
xmn2 net15 b dgnd agnd ne w=580e-9 l=180e-9 as=278.4e-15 ad=278.4e-15 ps=2.12e-6 pd=2.12e-6 nrs=465.517e-3 nrd=465.517e-3 m=1 par1=1
xmp1 out a d1p5v d1p5v pe w=420e-9 l=180e-9 as=201.6e-15 ad=201.6e-15 ps=1.8e-6 pd=1.8e-6 nrs=642.857e-3 nrd=642.857e-3 m=1 par1=1
xmp2 out b d1p5v d1p5v pe w=420e-9 l=180e-9 as=201.6e-15 ad=201.6e-15 ps=1.8e-6 pd=1.8e-6 nrs=642.857e-3 nrd=642.857e-3 m=1 par1=1
.ends nand
** End of subcircuit definition.

** Library name: nuplus_check
** Cell name: scope-decode
** View name: schematic
.subckt _sub8 agnd d1p5v d5v dgnd enable0 enable1 out0 out1 out2 out3 sel0 sel1
xi6 net20 agnd sel0 sel1 d1p5v dgnd net21 nand3
xi5 net20 agnd _net0 sel1 d1p5v dgnd net22 nand3
xi4 net20 agnd sel0 _net1 d1p5v dgnd net23 nand3
xi1 net20 agnd _net0 _net1 d1p5v dgnd net24 nand3
xi2 enable0 agnd enable1 d1p5v dgnd net25 nand
xi12 agnd d1p5v dgnd sel1 _net1 inv
xi11 agnd d1p5v dgnd sel0 _net0 inv
xi3 agnd d1p5v dgnd net25 net20 inv
xi9 agnd d1p5v d5v dgnd net21 out3 lvto5Vn
xi8 agnd d1p5v d5v dgnd net22 out2 lvto5Vn
xi7 agnd d1p5v d5v dgnd net23 out1 lvto5Vn
xi0 agnd d1p5v d5v dgnd net24 out0 lvto5Vn
.ends _sub8
** End of subcircuit definition.

** Library name: nuplus_check
** Cell name: pixel-logic
** View name: schematic
.subckt _sub9 agnd capen _net6 _net5 _net22 _net8 colen d1p5v d5v dgnd _net0 _net36 _net11 _net25 _net37 _net14 pixen _net7 _net26 rdpixclk rdpixsel0 rdpixsel1 _net1 _net31 _net10 _net30 _net9 _net20 _net13 _net33 _net34 _net35 _net32 rowen _net23 _net24 scopsel0 scopsel1 _net27 _net28 _net21 _net29 _net16 _net17 _net18 _net19 tpul _net12 _net4 _net3
xm0 net18 _net0 dgnd agnd ne5 w=220e-9 l=500e-9 as=105.6e-15 ad=105.6e-15 ps=1.4e-6 pd=1.4e-6 nrs=1.22727 nrd=1.22727 m=1 par1=1
xm1 net18 _net0 d1p5v d1p5v pe5 w=220e-9 l=500e-9 as=105.6e-15 ad=105.6e-15 ps=1.4e-6 pd=1.4e-6 nrs=1.22727 nrd=1.22727 m=1 par1=1
xi31 net0140 agnd _net1 d1p5v dgnd net0145 nor
xi23 readpix agnd net0149 d1p5v dgnd net0150 nor
xi18 net0115 agnd net0114 d1p5v dgnd net0151 nor
xi12 net0153 agnd trigger d1p5v dgnd net0152 nor
xi11 _net2 agnd _net3 d1p5v dgnd net0153 nor
xi8 _net2 agnd _net4 d1p5v dgnd net0154 nor
xi38 agnd d1p5v dgnd net0113 _net5 inv
xi37 agnd d1p5v dgnd _net6 net0113 inv
xi36 agnd d1p5v dgnd _net7 _net8 inv
xi32 agnd d1p5v dgnd net0145 capen inv
xi30 agnd d1p5v dgnd net0146 _net9 inv
xi29 agnd d1p5v dgnd net0147 _net10 inv
xi24 agnd d1p5v dgnd net0150 net0148 inv
xi19 agnd d1p5v dgnd net0151 net0129 inv
xi15 agnd d1p5v dgnd net0152 net0130 inv
xi6 agnd d1p5v dgnd net23 _net11 inv
xi13 agnd d1p5v d5v dgnd net0154 tpul _net12 lvto5Vpn
xi14 net0148 readpix _net13 agnd rdpixclk _net14 d1p5v dgnd dffc
xi22 net0134 agnd net0133 d1p5v dgnd net0149 rdpixsel1 mux2n
xi21 net0114 agnd net0129 d1p5v dgnd net0133 rdpixsel0 mux2n
xi20 net0130 agnd net0115 d1p5v dgnd net0134 rdpixsel0 mux2n
xi26 agnd _net15 _net16 _net17 _net14 d1p5v dgnd net0140 net0119 _net18 _net19 _sub7
xi40 agnd d1p5v d5v dgnd net0140 _net20 lvto5Vn
xi34 agnd d1p5v d5v dgnd net0144 _net21 lvto5Vn
xi35 _net22 pixen _net7 agnd net0113 d1p5v dgnd dff
xi39 agnd d1p5v d5v dgnd _net23 _net24 _net25 _net26 _net27 _net28 scopsel0 scopsel1 _sub8
xi33 _net1 agnd _net29 d1p5v dgnd net0144 nand
xi28 net0119 agnd _net30 d1p5v dgnd net0146 nand
xi27 _net31 agnd net0119 d1p5v dgnd net0147 nand
xi25 readpix agnd pixen d1p5v dgnd _net15 nand
xi17 _net32 agnd _net33 d1p5v dgnd net0114 nand
xi16 _net34 agnd _net35 d1p5v dgnd net0115 nand
xi7 colen agnd rowen d1p5v dgnd _net2 nand
xi5 net21 agnd _net36 d1p5v dgnd net23 nand
xi2 trigger agnd _net14 d1p5v dgnd net21 nand
xi1 net24 agnd net21 d1p5v dgnd trigger nand
xi0 net18 agnd _net37 d1p5v dgnd net24 nand
.ends _sub9
** End of subcircuit definition.

** Library name: nuplus_check
** Cell name: analog-sw
** View name: schematic
.subckt _sub10 a0 a1 a5v agnd in
xm2 a0 net21 a1 a5v pe5 w=3e-6 l=500e-9 as=1.44e-12 ad=1.44e-12 ps=6.96e-6 pd=6.96e-6 nrs=90e-3 nrd=90e-3 m=1 par1=1
xm0 net21 in a5v a5v pe5 w=1e-6 l=500e-9 as=480e-15 ad=480e-15 ps=2.96e-6 pd=2.96e-6 nrs=270e-3 nrd=270e-3 m=1 par1=1
xm3 a0 in a1 agnd ne5 w=1e-6 l=500e-9 as=480e-15 ad=480e-15 ps=2.96e-6 pd=2.96e-6 nrs=270e-3 nrd=270e-3 m=1 par1=1
xm4 net21 in agnd agnd ne5 w=500e-9 l=500e-9 as=240e-15 ad=240e-15 ps=1.96e-6 pd=1.96e-6 nrs=540e-3 nrd=540e-3 m=1 par1=1
.ends _sub10
** End of subcircuit definition.

** Library name: nuplus_check
** Cell name: preamp
** View name: schematic
.subckt preamp a5v agnd b5v compsel0 compsel1 gainsel0 gainsel1 in iout1 iout2 pixen _net0 pre5v prebias _net1 vn1 vn1a vn2 vn3 vout1 vout2
xm9 net030 pixen pre5v pre5v pe5 w=1.8e-6 l=600e-9 as=864e-15 ad=864e-15 ps=4.56e-6 pd=4.56e-6 nrs=150e-3 nrd=150e-3 m=1 par1=1
xm8 net019 _net0 net25 pre5v pe5 w=1.8e-6 l=600e-9 as=864e-15 ad=864e-15 ps=4.56e-6 pd=4.56e-6 nrs=150e-3 nrd=150e-3 m=1 par1=1
xm6 net030 net019 pre5v pre5v pe5 w=3.6e-6 l=1.2e-6 as=1.728e-12 ad=1.728e-12 ps=8.16e-6 pd=8.16e-6 nrs=75e-3 nrd=75e-3 m=1 par1=1
xm1 net32 net030 net019 net019 pe5 w=15e-6 l=1.2e-6 as=7.2e-12 ad=7.2e-12 ps=30.96e-6 pd=30.96e-6 nrs=18e-3 nrd=18e-3 m=1 par1=1
xm0 net019 in pre5v pre5v pe5 w=41e-6 l=600e-9 as=19.68e-12 ad=19.68e-12 ps=82.96e-6 pd=82.96e-6 nrs=6.58537e-3 nrd=6.58537e-3 m=1 par1=1
xm26 b5v _net1 net46 agnd ne5 w=1e-6 l=500e-9 as=480e-15 ad=480e-15 ps=2.96e-6 pd=2.96e-6 nrs=270e-3 nrd=270e-3 m=1 par1=1
xm23 vout2 gainsel0 net060 agnd ne5 w=12e-6 l=1.2e-6 as=5.76e-12 ad=5.76e-12 ps=24.96e-6 pd=24.96e-6 nrs=22.5e-3 nrd=22.5e-3 m=1 par1=1
xm22 vout2 gainsel1 net061 agnd ne5 w=12e-6 l=1.2e-6 as=5.76e-12 ad=5.76e-12 ps=24.96e-6 pd=24.96e-6 nrs=22.5e-3 nrd=22.5e-3 m=1 par1=1
xm19 vout1 gainsel1 net040 agnd ne5 w=12e-6 l=1.2e-6 as=5.76e-12 ad=5.76e-12 ps=24.96e-6 pd=24.96e-6 nrs=22.5e-3 nrd=22.5e-3 m=1 par1=1
xm17 net45 net32 vout2 agnd ne5 w=3e-6 l=1.2e-6 as=1.44e-12 ad=1.44e-12 ps=6.96e-6 pd=6.96e-6 nrs=90e-3 nrd=90e-3 m=1 par1=1
xm16 net46 net32 vout1 agnd ne5 w=3e-6 l=1.2e-6 as=1.44e-12 ad=1.44e-12 ps=6.96e-6 pd=6.96e-6 nrs=90e-3 nrd=90e-3 m=1 par1=1
xm15 iout2 vn3 net45 agnd ne5 w=3e-6 l=500e-9 as=1.44e-12 ad=1.44e-12 ps=6.96e-6 pd=6.96e-6 nrs=90e-3 nrd=90e-3 m=1 par1=1
xm14 iout1 vn3 net46 agnd ne5 w=3e-6 l=500e-9 as=1.44e-12 ad=1.44e-12 ps=6.96e-6 pd=6.96e-6 nrs=90e-3 nrd=90e-3 m=1 par1=1
xm13 net030 vn1 agnd agnd ne5 w=1.8e-6 l=2.4e-6 as=864e-15 ad=864e-15 ps=4.56e-6 pd=4.56e-6 nrs=150e-3 nrd=150e-3 m=1 par1=1
xm12 net030 vn1 agnd agnd ne5 w=1.8e-6 l=2.4e-6 as=864e-15 ad=864e-15 ps=4.56e-6 pd=4.56e-6 nrs=150e-3 nrd=150e-3 m=1 par1=1
xm11 net030 vn1 agnd agnd ne5 w=1.8e-6 l=2.4e-6 as=864e-15 ad=864e-15 ps=4.56e-6 pd=4.56e-6 nrs=150e-3 nrd=150e-3 m=1 par1=1
xm10 net030 vn1 agnd agnd ne5 w=1.8e-6 l=2.4e-6 as=864e-15 ad=864e-15 ps=4.56e-6 pd=4.56e-6 nrs=150e-3 nrd=150e-3 m=1 par1=1
xm18 net32 vn2 net059 agnd ne5 w=15e-6 l=3e-6 as=7.2e-12 ad=7.2e-12 ps=30.96e-6 pd=30.96e-6 nrs=18e-3 nrd=18e-3 m=1 par1=1
xm7 net059 vn1a agnd agnd ne5 w=6e-6 l=24e-6 as=2.88e-12 ad=2.88e-12 ps=12.96e-6 pd=12.96e-6 nrs=45e-3 nrd=45e-3 m=1 par1=1
xm20 vout1 gainsel0 net026 agnd ne5 w=12e-6 l=1.2e-6 as=5.76e-12 ad=5.76e-12 ps=24.96e-6 pd=24.96e-6 nrs=22.5e-3 nrd=22.5e-3 m=1 par1=1
xr7 net061 agnd agnd rnp1h_3 l=27.61e-6 w=440e-9 m=1 par1=1
xr6 net060 agnd agnd rnp1h_3 l=55.23e-6 w=440e-9 m=1 par1=1
xr2 net25 prebias prebias rnp1h_3 l=144.03e-6 w=2e-6 m=1 par1=1
xr5 vout2 agnd agnd rnp1h_3 l=55.23e-6 w=440e-9 m=1 par1=1
xr0 net040 agnd agnd rnp1h_3 l=23.63e-6 w=440e-9 m=1 par1=1
xr4 vout1 agnd agnd rnp1h_3 l=47.25e-6 w=440e-9 m=1 par1=1
xr3 net026 agnd agnd rnp1h_3 l=47.25e-6 w=440e-9 m=1 par1=1
xi1 net051 net32 a5v agnd compsel0 _sub10
xi0 net050 net32 a5v agnd compsel1 _sub10
xc0 net32 agnd csandwt3 area=295.4e-12 perimeter=77.1e-6 m=1 par1=1
xc2 net051 agnd csandwt3 area=297.96e-12 perimeter=69.4e-6 m=1 par1=1
xc3 net050 agnd csandwt3 area=610.088e-12 perimeter=99.23e-6 m=1 par1=1
xc1x vout1 agnd csandwt3 area=113.76e-12 perimeter=42.96e-6 m=1 par1=1
xc4x vout2 agnd csandwt3 area=111.87e-12 perimeter=48.43e-6 m=1 par1=1
.ends preamp
** End of subcircuit definition.

** Library name: nuplus_check
** Cell name: amp2
** View name: schematic
.subckt amp2 a5v agnd in out vn1 vn2 vp1 vp2
xm9 a5v net21 out agnd ne5 w=3.6e-6 l=1.2e-6 as=1.728e-12 ad=1.728e-12 ps=8.16e-6 pd=8.16e-6 nrs=75e-3 nrd=75e-3 m=1 par1=1
xm8 out vn1 agnd agnd ne5 w=1.8e-6 l=2.4e-6 as=864e-15 ad=864e-15 ps=4.56e-6 pd=4.56e-6 nrs=150e-3 nrd=150e-3 m=1 par1=1
xm7 out vn1 agnd agnd ne5 w=1.8e-6 l=2.4e-6 as=864e-15 ad=864e-15 ps=4.56e-6 pd=4.56e-6 nrs=150e-3 nrd=150e-3 m=1 par1=1
xm5 out vn1 agnd agnd ne5 w=1.8e-6 l=2.4e-6 as=864e-15 ad=864e-15 ps=4.56e-6 pd=4.56e-6 nrs=150e-3 nrd=150e-3 m=1 par1=1
xm4 out vn1 agnd agnd ne5 w=1.8e-6 l=2.4e-6 as=864e-15 ad=864e-15 ps=4.56e-6 pd=4.56e-6 nrs=150e-3 nrd=150e-3 m=1 par1=1
xm1 net21 vn2 net29 agnd ne5 w=3.6e-6 l=1.2e-6 as=1.728e-12 ad=1.728e-12 ps=8.16e-6 pd=8.16e-6 nrs=75e-3 nrd=75e-3 m=1 par1=1
xm0 net29 in agnd agnd ne5 w=3.6e-6 l=1.2e-6 as=1.728e-12 ad=1.728e-12 ps=8.16e-6 pd=8.16e-6 nrs=75e-3 nrd=75e-3 m=1 par1=1
xm3 net27 vp1 a5v a5v pe5 w=1.8e-6 l=2.4e-6 as=864e-15 ad=864e-15 ps=4.56e-6 pd=4.56e-6 nrs=150e-3 nrd=150e-3 m=1 par1=1
xm2 net27 vp1 a5v a5v pe5 w=1.8e-6 l=2.4e-6 as=864e-15 ad=864e-15 ps=4.56e-6 pd=4.56e-6 nrs=150e-3 nrd=150e-3 m=1 par1=1
xm6 net21 vp2 net27 a5v pe5 w=3.6e-6 l=1.2e-6 as=1.728e-12 ad=1.728e-12 ps=8.16e-6 pd=8.16e-6 nrs=75e-3 nrd=75e-3 m=1 par1=1
.ends amp2
** End of subcircuit definition.

** Library name: nuplus_check
** Cell name: amp1
** View name: schematic
.subckt amp1 a5v agnd in out vn2 vp1 vp2
xm1 net21 vn2 net26 agnd ne5 w=3.6e-6 l=1.2e-6 as=1.728e-12 ad=1.728e-12 ps=8.16e-6 pd=8.16e-6 nrs=75e-3 nrd=75e-3 m=1 par1=1
xm0 net26 in agnd agnd ne5 w=3.6e-6 l=1.2e-6 as=1.728e-12 ad=1.728e-12 ps=8.16e-6 pd=8.16e-6 nrs=75e-3 nrd=75e-3 m=1 par1=1
xm7 agnd net21 out a5v pe5 w=2.4e-6 l=600e-9 as=1.152e-12 ad=1.152e-12 ps=5.76e-6 pd=5.76e-6 nrs=112.5e-3 nrd=112.5e-3 m=1 par1=1
xm6 net21 vp2 net016 a5v pe5 w=3.6e-6 l=1.2e-6 as=1.728e-12 ad=1.728e-12 ps=8.16e-6 pd=8.16e-6 nrs=75e-3 nrd=75e-3 m=1 par1=1
xm5 out vp1 a5v a5v pe5 w=1.8e-6 l=2.4e-6 as=675e-15 ad=486e-15 ps=3.45e-6 pd=2.34e-6 nrs=150e-3 nrd=150e-3 m=4 par1=4
xm2 net016 vp1 a5v a5v pe5 w=1.8e-6 l=2.4e-6 as=864e-15 ad=486e-15 ps=4.56e-6 pd=2.34e-6 nrs=150e-3 nrd=150e-3 m=2 par1=2
.ends amp1
** End of subcircuit definition.

** Library name: nuplus_check
** Cell name: shaper
** View name: schematic
.subckt shaper a5v agnd in out vn1 vn2 vp1 vp2
xi2 a5v agnd net20 out vn1 vn2 vp1 vp2 amp2
xr3 out net20 agnd rnp1h_3 l=394.29e-6 w=440e-9 m=1 par1=1
xr2 net25 in agnd rnp1h_3 l=27.61e-6 w=440e-9 m=1 par1=1
xr0 net18 agnd agnd rnp1h_3 l=138.07e-6 w=440e-9 m=1 par1=1
xr1 net19 net18 agnd rnp1h_3 l=394.29e-6 w=440e-9 m=1 par1=1
xi0 a5v agnd net18 net19 vn2 vp1 vp2 amp1
xc2 net20 net19 ctmmh5 area=147.78e-12 perimeter=48.63e-6 m=1 par1=1
xc1 net18 net25 ctmmh5 area=147.78e-12 perimeter=48.63e-6 m=1 par1=1
xc3x net25 agnd ctmmh5 area=27.475e-12 perimeter=20.99e-6 m=1 par1=1
xc0x net18 net19 csandwt3 area=420.35e-12 perimeter=88.05e-6 m=1 par1=1
xc4x net20 out csandwt3 area=421.74e-12 perimeter=84.12e-6 m=1 par1=1
.ends shaper
** End of subcircuit definition.

** Library name: nuplus_check
** Cell name: disc
** View name: schematic
.subckt disc a5v agnd _net0 _net2 _net1 pixen vn1 vp1
xm11 _net0 vp1 a5v a5v pe5 w=1.8e-6 l=2.4e-6 as=864e-15 ad=864e-15 ps=4.56e-6 pd=4.56e-6 nrs=150e-3 nrd=150e-3 m=1 par1=1
xm2 net24 _net1 net20 a5v pe5 w=2.4e-6 l=1.2e-6 as=1.152e-12 ad=1.152e-12 ps=5.76e-6 pd=5.76e-6 nrs=112.5e-3 nrd=112.5e-3 m=1 par1=1
xm1 net19 _net2 net20 a5v pe5 w=2.4e-6 l=1.2e-6 as=1.152e-12 ad=1.152e-12 ps=5.76e-6 pd=5.76e-6 nrs=112.5e-3 nrd=112.5e-3 m=1 par1=1
xm0 net20 vp1 a5v a5v pe5 w=1.8e-6 l=2.4e-6 as=612e-15 ad=486e-15 ps=3.08e-6 pd=2.34e-6 nrs=150e-3 nrd=150e-3 m=6 par1=6
xm10 _net0 net26 net34 agnd ne5 w=1.8e-6 l=600e-9 as=864e-15 ad=864e-15 ps=4.56e-6 pd=4.56e-6 nrs=150e-3 nrd=150e-3 m=1 par1=1
xm9 net34 pixen agnd agnd ne5 w=1.8e-6 l=2.4e-6 as=864e-15 ad=864e-15 ps=4.56e-6 pd=4.56e-6 nrs=150e-3 nrd=150e-3 m=1 par1=1
xm8 net26 vn1 agnd agnd ne5 w=1.8e-6 l=2.4e-6 as=864e-15 ad=864e-15 ps=4.56e-6 pd=4.56e-6 nrs=150e-3 nrd=150e-3 m=1 par1=1
xm7 a5v net24 net26 agnd ne5 w=1.8e-6 l=600e-9 as=864e-15 ad=864e-15 ps=4.56e-6 pd=4.56e-6 nrs=150e-3 nrd=150e-3 m=1 par1=1
xm6 net33 net18 agnd agnd ne5 w=2.4e-6 l=1.2e-6 as=1.152e-12 ad=1.152e-12 ps=5.76e-6 pd=5.76e-6 nrs=112.5e-3 nrd=112.5e-3 m=1 par1=1
xm5 net18 net18 agnd agnd ne5 w=2.4e-6 l=1.2e-6 as=1.152e-12 ad=1.152e-12 ps=5.76e-6 pd=5.76e-6 nrs=112.5e-3 nrd=112.5e-3 m=1 par1=1
xm4 net19 net19 net18 agnd ne5 w=2.4e-6 l=600e-9 as=1.152e-12 ad=1.152e-12 ps=5.76e-6 pd=5.76e-6 nrs=112.5e-3 nrd=112.5e-3 m=1 par1=1
xm3 net24 net19 net33 agnd ne5 w=2.4e-6 l=600e-9 as=1.152e-12 ad=1.152e-12 ps=5.76e-6 pd=5.76e-6 nrs=112.5e-3 nrd=112.5e-3 m=1 par1=1
xc0x net33 net26 csandwt3 area=83.742e-12 perimeter=36.82e-6 m=1 par1=1
.ends disc
** End of subcircuit definition.

** Library name: nuplus_check
** Cell name: lvto5V
** View name: schematic
.subckt lvto5V agnd d1p5v d5v dgnd in out
xm6 net21 in dgnd agnd ne5 w=840e-9 l=500e-9 as=403.2e-15 ad=403.2e-15 ps=2.64e-6 pd=2.64e-6 nrs=642.857e-3 nrd=642.857e-3 m=1 par1=1
xm8 out net21 dgnd agnd ne5 w=320e-9 l=500e-9 as=153.6e-15 ad=153.6e-15 ps=1.6e-6 pd=1.6e-6 nrs=1.6875 nrd=1.6875 m=1 par1=1
xm4 net15 net14 dgnd agnd ne5 w=840e-9 l=500e-9 as=403.2e-15 ad=403.2e-15 ps=2.64e-6 pd=2.64e-6 nrs=321.429e-3 nrd=321.429e-3 m=1 par1=1
xm2 net14 in dgnd agnd ne w=420e-9 l=180e-9 as=201.6e-15 ad=201.6e-15 ps=1.8e-6 pd=1.8e-6 nrs=642.857e-3 nrd=642.857e-3 m=1 par1=1
xm1 net14 in d1p5v d1p5v pe w=1e-6 l=180e-9 as=480e-15 ad=480e-15 ps=2.96e-6 pd=2.96e-6 nrs=270e-3 nrd=270e-3 m=1 par1=1
xm7 out net21 d5v d5v pe5 w=510e-9 l=500e-9 as=244.8e-15 ad=244.8e-15 ps=1.98e-6 pd=1.98e-6 nrs=1.05882 nrd=1.05882 m=1 par1=1
xm3 net15 net21 d5v d5v pe5 w=220e-9 l=500e-9 as=105.6e-15 ad=105.6e-15 ps=1.4e-6 pd=1.4e-6 nrs=2.45455 nrd=2.45455 m=1 par1=1
xm5 net21 net15 d5v d5v pe5 w=220e-9 l=500e-9 as=105.6e-15 ad=105.6e-15 ps=1.4e-6 pd=1.4e-6 nrs=2.45455 nrd=2.45455 m=1 par1=1
.ends lvto5V
** End of subcircuit definition.

** Library name: nuplus_check
** Cell name: delay
** View name: schematic
.subckt delay agnd d1p5v dgnd in out